Circuit: * E:\Studies\College\3rd Sem\EC-205 Analog Electronics Lab\lab9\Draft1.asc

Direct Newton iteration for .op point succeeded.

Date: Tue Dec 21 14:32:31 2021
Total elapsed time: 0.051 seconds.

tnom = 27
temp = 27
method = modified trap
totiter = 6598
traniter = 6587
tranpoints = 2270
accept = 1736
rejected = 534
matrix size = 39
fillins = 39
solver = Normal
Matrix Compiler1: 3.72 KB object code size  1.0/0.4/[0.3]
Matrix Compiler2: off  [0.3]/0.4/0.4

