Circuit: * E:\Studies\College\3rd Sem\EC-205 Analog Electronics Lab\lab9\Draft3.asc

Direct Newton iteration for .op point succeeded.

Date: Fri Dec 24 14:23:57 2021
Total elapsed time: 0.060 seconds.

tnom = 27
temp = 27
method = modified trap
totiter = 5688
traniter = 5668
tranpoints = 1798
accept = 1528
rejected = 270
matrix size = 40
fillins = 21
solver = Normal
Matrix Compiler1: 2.76 KB object code size  0.8/0.3/[0.2]
Matrix Compiler2: 3.53 KB object code size  0.3/0.4/[0.3]

