Circuit: * E:\Studies\College\3rd Sem\EC-205 Analog Electronics Lab\lab9\Draft2.asc

Direct Newton iteration for .op point succeeded.

Date: Fri Dec 17 14:07:58 2021
Total elapsed time: 0.016 seconds.

tnom = 27
temp = 27
method = trap
totiter = 11
traniter = 0
tranpoints = 0
accept = 0
rejected = 0
matrix size = 40
fillins = 46
solver = Normal
Matrix Compiler1:     234 opcodes
Matrix Compiler2: 4.02 KB object code size
