Circuit: * E:\Studies\College\3rd Sem\EC-205 Analog Electronics Lab\lab4\1\Draft4.asc

.OP point found by inspection.

Date: Sun Nov 07 22:22:44 2021
Total elapsed time: 0.015 seconds.

tnom = 27
temp = 27
method = modified trap
totiter = 362
traniter = 362
tranpoints = 182
accept = 151
rejected = 31
matrix size = 3
fillins = 0
solver = Normal
Matrix Compiler1: 86 bytes object code size  0.0/0.0/[0.0]
Matrix Compiler2: off  [0.0]/0.1/0.0

