Circuit: * E:\Studies\College\3rd Sem\EC-205 Analog Electronics Lab\lab4\1\Draft2.asc


Date: Mon Nov 08 18:25:12 2021
Total elapsed time: 0.024 seconds.

tnom = 27
temp = 27
method = trap
totiter = 0
traniter = 0
tranpoints = 0
accept = 0
rejected = 0
matrix size = 3
fillins = 0
solver = Normal

