Circuit: * E:\Studies\College\3rd Sem\EC-205 Analog Electronics Lab\lab4\1\Draft1.asc

.OP point found by inspection.

Date: Mon Nov 08 18:22:00 2021
Total elapsed time: 0.283 seconds.

tnom = 27
temp = 27
method = modified trap
totiter = 32932
traniter = 32932
tranpoints = 16467
accept = 14453
rejected = 2014
matrix size = 3
fillins = 0
solver = Normal
Matrix Compiler1: 86 bytes object code size  0.1/0.0/[0.0]
Matrix Compiler2: off  [0.0]/0.1/0.1

