Circuit: * E:\Studies\College\3rd Sem\EC-205 Analog Electronics Lab\lab4\Draft1.asc


Date: Sun Nov 07 17:58:12 2021
Total elapsed time: 0.074 seconds.

tnom = 27
temp = 27
method = trap
totiter = 0
traniter = 0
tranpoints = 0
accept = 0
rejected = 0
matrix size = 3
fillins = 0
solver = Normal

