Circuit: * E:\ut2\Ut\Studies\College\3rd Sem\EC-205 Analog Electronics Lab\lab2\Draft2.asc

Direct Newton iteration for .op point succeeded.

Date: Thu Oct 14 00:50:08 2021
Total elapsed time: 0.107 seconds.

tnom = 27
temp = 27
method = modified trap
totiter = 2286
traniter = 2282
tranpoints = 1042
accept = 1042
rejected = 0
matrix size = 14
fillins = 0
solver = Normal
Matrix Compiler1:      26 opcodes  0.1/[0.1]/0.1
Matrix Compiler2: off  [0.1]/0.1/0.1

