Circuit: * E:\ut2\Ut\Studies\College\3rd Sem\EC-205 Analog Electronics Lab\lab2\Draft4.asc

.OP point found by inspection.

Date: Thu Oct 14 01:12:03 2021
Total elapsed time: 0.049 seconds.

tnom = 27
temp = 27
method = modified trap
totiter = 2328
traniter = 2328
tranpoints = 1053
accept = 1049
rejected = 4
matrix size = 3
fillins = 0
solver = Normal
Matrix Compiler1: 86 bytes object code size  0.1/0.0/[0.0]
Matrix Compiler2:      15 opcodes  0.0/[0.0]/0.1

