Circuit: * D:\Studies\College\3rd Sem\EC-205 Analog Electronics Lab\lab1\project files\1a.asc

.OP point found by inspection.

Date: Tue Sep 28 17:33:12 2021
Total elapsed time: 0.057 seconds.

tnom = 27
temp = 27
method = modified trap
totiter = 2088
traniter = 2088
tranpoints = 1045
accept = 1045
rejected = 0
matrix size = 5
fillins = 0
solver = Normal
Matrix Compiler1:       8 opcodes  0.1/[0.0]/0.3
Matrix Compiler2: 295 bytes object code size  0.1/0.1/[0.0]

