Circuit: * D:\Studies\College\3rd Sem\EC-205 Analog Electronics Lab\lab1\project files\1b.asc

Direct Newton iteration for .op point succeeded.

Date: Tue Sep 28 17:32:45 2021
Total elapsed time: 0.057 seconds.

tnom = 27
temp = 27
method = modified trap
totiter = 2105
traniter = 2088
tranpoints = 1045
accept = 1045
rejected = 0
matrix size = 5
fillins = 0
solver = Normal
Matrix Compiler1: 132 bytes object code size  0.1/0.1/[0.0]
Matrix Compiler2: off  [0.0]/0.1/0.1

