Circuit: * D:\Studies\College\3rd Sem\EC-205 Analog Electronics Lab\lab1\project files\2.asc

Direct Newton iteration for .op point succeeded.

Date: Tue Sep 28 17:33:30 2021
Total elapsed time: 0.083 seconds.

tnom = 27
temp = 27
method = modified trap
totiter = 2104
traniter = 2088
tranpoints = 1045
accept = 1045
rejected = 0
matrix size = 7
fillins = 0
solver = Normal
Matrix Compiler1: 196 bytes object code size  0.1/0.1/[0.0]
Matrix Compiler2: off  [0.1]/0.1/0.1

