Circuit: * E:\Studies\College\3rd Sem\EC-205 Analog Electronics Lab\lab4\2\Draft1.asc

Direct Newton iteration for .op point succeeded.

Date: Mon Nov 08 18:16:14 2021
Total elapsed time: 0.259 seconds.

tnom = 27
temp = 27
method = modified trap
totiter = 32973
traniter = 32970
tranpoints = 16486
accept = 14475
rejected = 2011
matrix size = 3
fillins = 0
solver = Normal
Matrix Compiler1: 86 bytes object code size  0.1/0.1/[0.0]
Matrix Compiler2: 163 bytes object code size  0.1/0.1/[0.1]

