Circuit: * E:\Studies\College\3rd Sem\EC-205 Analog Electronics Lab\lab6\Draft1.asc

Direct Newton iteration for .op point succeeded.

Date: Wed Dec 01 20:32:45 2021
Total elapsed time: 0.046 seconds.

tnom = 27
temp = 27
method = modified trap
totiter = 7018
traniter = 6999
tranpoints = 2239
accept = 1836
rejected = 403
matrix size = 39
fillins = 38
solver = Normal
Matrix Compiler1: 3.79 KB object code size  0.9/0.3/[0.3]
Matrix Compiler2: off  [0.3]/0.4/0.3

