Circuit: * E:\Studies\College\3rd Sem\EC-205 Analog Electronics Lab\lab6\Draft2.asc

Direct Newton iteration for .op point succeeded.
Heightened Def Con from 3.24116e-010 to 4.32412e-009

Date: Tue Dec 14 19:54:05 2021
Total elapsed time: 0.040 seconds.

tnom = 27
temp = 27
method = modified trap
totiter = 2416
traniter = 2405
tranpoints = 1099
accept = 1079
rejected = 21
matrix size = 39
fillins = 41
solver = Normal
Matrix Compiler1:     215 opcodes  1.0/[0.3]/0.3
Matrix Compiler2: off
