Circuit: * E:\ut2\Ut\Studies\College\3rd Sem\EC-205 Analog Electronics Lab\lab2\2\Draft2.asc

Direct Newton iteration for .op point succeeded.

Date: Sun Oct 17 16:25:36 2021
Total elapsed time: 0.025 seconds.

tnom = 27
temp = 27
method = modified trap
totiter = 2937
traniter = 2932
tranpoints = 1462
accept = 1401
rejected = 61
matrix size = 7
fillins = 0
solver = Normal
Matrix Compiler1: 214 bytes object code size  0.1/0.0/[0.0]
Matrix Compiler2: off  [0.1]/0.1/0.1

