Circuit: * E:\ut2\Ut\Studies\College\3rd Sem\EC-205 Analog Electronics Lab\lab2\2\Draft3.asc

Direct Newton iteration for .op point succeeded.

Date: Sun Oct 17 16:37:05 2021
Total elapsed time: 0.038 seconds.

tnom = 27
temp = 27
method = modified trap
totiter = 2145
traniter = 2141
tranpoints = 1042
accept = 1042
rejected = 0
matrix size = 9
fillins = 7
solver = Normal
Matrix Compiler1:      42 opcodes  0.2/0.1/[0.1]
Matrix Compiler2: off
