Circuit: * E:\ut2\Ut\Studies\College\3rd Sem\EC-205 Analog Electronics Lab\lab2\2\Draft1.asc

Direct Newton iteration for .op point succeeded.

Date: Thu Oct 14 14:59:30 2021
Total elapsed time: 0.028 seconds.

tnom = 27
temp = 27
method = modified trap
totiter = 2180
traniter = 2172
tranpoints = 1042
accept = 1042
rejected = 0
matrix size = 6
fillins = 0
solver = Normal
Matrix Compiler1:      10 opcodes  0.1/[0.0]/0.1
Matrix Compiler2:      32 opcodes  0.0/[0.0]/0.1

