Circuit: * E:\Studies\College\3rd Sem\EC-205 Analog Electronics Lab\lab10\q3\Draft3.asc

Direct Newton iteration for .op point succeeded.

Date: Fri Dec 24 15:38:17 2021
Total elapsed time: 0.018 seconds.

tnom = 27
temp = 27
method = modified trap
totiter = 2194
traniter = 2183
tranpoints = 1072
accept = 1065
rejected = 7
matrix size = 38
fillins = 33
solver = Normal
Matrix Compiler1: 3.09 KB object code size  0.9/0.3/[0.3]
Matrix Compiler2: off  [0.3]/0.3/0.3

