Circuit: * E:\Studies\College\3rd Sem\EC-205 Analog Electronics Lab\lab10\q2\Draft3.asc

Direct Newton iteration for .op point succeeded.

Date: Fri Dec 24 15:21:21 2021
Total elapsed time: 0.076 seconds.

tnom = 27
temp = 27
method = modified trap
totiter = 3981
traniter = 3970
tranpoints = 1074
accept = 1067
rejected = 7
matrix size = 38
fillins = 33
solver = Normal
Matrix Compiler1: 3.13 KB object code size  1.0/0.4/[0.3]
Matrix Compiler2: 3.63 KB object code size  0.3/0.6/[0.3]

