Circuit: * E:\Studies\College\3rd Sem\EC-205 Analog Electronics Lab\lab5\Draft1.asc

Direct Newton iteration failed to find .op point.  (Use ".option noopiter" to skip.)
Starting Gmin stepping
Gmin = 10
Gmin = 1.07374
vernier = 0.5
vernier = 0.25
vernier = 0.125
vernier = 0.0625
Gmin = 1.08884
vernier = 0.03125
vernier = 0.015625
Gmin = 1.03122
vernier = 0.0078125
vernier = 0.00390625
Gmin = 1.01823
vernier = 0.00520833
vernier = 0.00260417
Gmin = 1.01162
vernier = 0.00347222
vernier = 0.00173611
vernier = 0.000868055
Gmin = 1.00899
vernier = 0.00115741
vernier = 0.000578703
Gmin = 1.0071
vernier = 0.000771604
vernier = 0.000578703
Gmin = 1.00579
vernier = 0.000771604
vernier = 0.000578703
vernier = 0.000434027
Gmin = 1.00499
vernier = 0.000578703
vernier = 0.000434027
Gmin = 0
Gmin stepping failed

Starting source stepping with srcstepmethod=0
Source Step = 3.0303%
Source Step = 33.3333%
Source Step = 63.6364%
Source Step = 86.3636%
Source Step = 93.9394%
Source stepping succeeded in finding the operating point.

.step r=1000
.step r=2000
.step r=3000
.step r=4000
.step r=5000
.step r=6000
.step r=7000
.step r=8000
.step r=9000

Date: Wed Dec 01 18:06:50 2021
Total elapsed time: 4.496 seconds.

tnom = 27
temp = 27
method = modified trap
totiter = 2103
traniter = 2082
tranpoints = 1042
accept = 1042
rejected = 0
matrix size = 38
fillins = 32
solver = Normal
Matrix Compiler1: 3.11 KB object code size  0.9/0.3/[0.3]
Matrix Compiler2: off  [0.3]/0.3/0.3

