Circuit: * E:\Studies\College\3rd Sem\EC-205 Analog Electronics Lab\lab5\p2.asc

Direct Newton iteration for .op point succeeded.

Date: Sun Nov 14 01:49:57 2021
Total elapsed time: 0.013 seconds.

tnom = 27
temp = 27
method = trap
totiter = 11
traniter = 0
tranpoints = 0
accept = 0
rejected = 0
matrix size = 39
fillins = 40
solver = Normal
Matrix Compiler1:     207 opcodes
Matrix Compiler2: 3.83 KB object code size
