Circuit: * E:\Studies\College\3rd Sem\EC-205 Analog Electronics Lab\lab5\p3.asc

Direct Newton iteration for .op point succeeded.

Date: Tue Nov 16 22:02:43 2021
Total elapsed time: 0.031 seconds.

tnom = 27
temp = 27
method = trap
totiter = 11
traniter = 0
tranpoints = 0
accept = 0
rejected = 0
matrix size = 75
fillins = 88
solver = Normal
Matrix Compiler1:     423 opcodes
Matrix Compiler2: 7.67 KB object code size
