Circuit: * E:\Studies\College\3rd Sem\EC-205 Analog Electronics Lab\lab10\tat\Draft3.asc

Direct Newton iteration for .op point succeeded.

Date: Fri Dec 24 16:05:35 2021
Total elapsed time: 0.039 seconds.

tnom = 27
temp = 27
method = modified trap
totiter = 2099
traniter = 2082
tranpoints = 1042
accept = 1042
rejected = 0
matrix size = 40
fillins = 30
solver = Normal
Matrix Compiler1: 3.12 KB object code size  0.9/0.3/[0.3]
Matrix Compiler2: off  [0.3]/0.4/0.3

